[General]
image-path=../../../images
output-scalar-file-append = false
**.routingRecorder.enabled = false

############### Statistics ##################
output-scalar-file = ${resultdir}/${configname}/${iterationvars}-${repetition}.sca
output-vector-file = ${resultdir}/${configname}/${iterationvars}-${repetition}.vec
seed-set = ${repetition}
**.sctp.**.scalar-recording = false  # remove annoying statistics from SCTP
**.sctp.**.vector-recording = false  # remove annoying statistics from SCTP
**.vector-recording = true

############### SCTP configuration ##################
**.sctp.nagleEnabled = false         # if true, transmission of small packets will be delayed on the X2
**.sctp.enableHeartbeats = false

############### General PHY parameters ##############
**.downlink_interference = true
**.uplink_interference = true
**.ueTxPower = 1dBm
**.eNodeBTxPower = 2dBm
**.targetBler = 0.01
**.blerShift = 5  
**.fbPeriod = 40   # reports CQI every 40ms

############### IPv4 configurator config #################
*.configurator.config = xmldoc("./demo.xml")


#------------------------------------#
# Config MultiCell
#
# General configuration for the for a multicell NR Standalone deployment
#
[Config MultiCell]
network = simu5g.simulations.SatCom.networks.MultiSeveralSatelliteSatUE_Standalone
sim-time-limit=20s
description = "Base configuration, do not run this config!"

############# Floorplan parameters ################
**.mobility.constraintAreaMaxX = 1100m
**.mobility.constraintAreaMaxY = 750m
**.mobility.constraintAreaMinX = 0m
**.mobility.constraintAreaMinY = 0m
**.mobility.constraintAreaMinZ = 0m
**.mobility.constraintAreaMaxZ = 0m
**.mobility.initFromDisplayString = false

############### CA configuration ################# 
*.carrierAggregation.numComponentCarriers = 1
*.carrierAggregation.componentCarrier[0].numerologyIndex = ${u=0}
*.carrierAggregation.componentCarrier[0].carrierFrequency = 2GHz
*.carrierAggregation.componentCarrier[0].numBands = ${numRbs=50}

*.gnbSat*.cellularNic.numCarriers = 1
*.gnbSat*.cellularNic.channelModel[0].componentCarrierIndex = 0
*.ue[*].cellularNic.numCarriers = 1

############### gnbSat position/mobility #################
# gnbSat1
*.gnbSat1.mobility.initialX = 20m
*.gnbSat1.mobility.initialY = 350m

*.gnbSat1.mobility.typename = "LinearMobility"
*.gnbSat1.mobility.initialX = 50m
*.gnbSat1.mobility.initialY = 550m
*.gnbSat1.mobility.speed = 15mps
*.gnbSat1.mobility.initialMovementHeading = 0deg 

# gnbSat2
*.gnbSat2.mobility.initialX = 500m
*.gnbSat2.mobility.initialY = 350m


*.gnbSat2.mobility.typename = "LinearMobility"
*.gnbSat2.mobility.initialX = 50m
*.gnbSat2.mobility.initialY = 550m
*.gnbSat2.mobility.speed = 15mps
*.gnbSat2.mobility.initialMovementHeading = 0deg 

# gnbSat3
*.gnbSat3.mobility.initialX = 350m
*.gnbSat3.mobility.initialY = 110m


*.gnbSat3.mobility.typename = "LinearMobility"
*.gnbSat3.mobility.initialX = 50m
*.gnbSat3.mobility.initialY = 550m
*.gnbSat3.mobility.speed = 15mps
*.gnbSat3.mobility.initialMovementHeading = 90deg 

############### X2 configuration #################
*.gnbSat*.numX2Apps = 2                                        # one x2App per peering node
*.gnbSat*.x2App[*].server.localPort = 5000 + ancestorIndex(1)  # Server ports (x2App[0]=5000, x2App[1]=5001, ...)

*.gnbSat1.x2App[0].client.connectAddress = "gnbSat2%x2ppp0"
*.gnbSat1.x2App[1].client.connectAddress = "gnbSat3%x2ppp0"

*.gnbSat2.x2App[0].client.connectAddress = "gnbSat1%x2ppp0"
*.gnbSat2.x2App[1].client.connectAddress = "gnbSat3%x2ppp0"

*.gnbSat3.x2App[0].client.connectAddress = "gnbSat1%x2ppp0"
*.gnbSat3.x2App[1].client.connectAddress = "gnbSat2%x2ppp0"

############## UE configuration ##################
*.numUe = ${numUEs=1,10,30}

# UEs associates to the best BS at the beginning of the simulation
*.ue[*].macCellId = 0
*.ue[*].masterId = 0
*.ue[*].nrMacCellId = 1
*.ue[*].nrMasterId = 2
**.dynamicCellAssociation = false
**.enableHandover = true

############ UEs position #################
*.ue[0].mobility.initialX = 450m
*.ue[0].mobility.initialY = 350m
#------------------------------------#



#------------------------------------#
# Config CBR-DL
#
# Configuration with CBR DL traffic from a remote server to the UEs
# 
[Config CBR-DL]
extends = MultiCell
description = "CBR DL traffic from remote server to UEs"

# one UDP application for each user
*.ue[*].numApps = 1

# the amount of UDP applications on server should be equal to (numUEs)*(ue[*].numApps) 
*.server.numApps = ${numUEs}

#============= Application Setup =============
*.ue[*].app[*].typename = "CbrReceiver"
*.ue[*].app[*].localPort = 3000

*.server.app[*].typename = "CbrSender"
*.server.app[*].PacketSize = 100
*.server.app[*].sampling_time = 0.02s
*.server.app[*].destAddress = "ue[" + string(ancestorIndex(0)) + "]"
*.server.app[*].destPort = 3000 
*.server.app[*].localPort = 3088+ancestorIndex(0) 
*.server.app[*].startTime = uniform(0s,0.02s)
*.server.app[*].finishTime = 40s

# Enable debug logging for RRC and cellularNic
*.ue[*].cellularNic.rrc.debug = true
*.gnbSat*.cellularNic.rrc.debug = true
*.ue[*].cellularNic.nrPhy.debug = true
*.gnbSat*.cellularNic.nrPhy.debug = true

# Enable Binder and Configurator verbosity
*.binder.debug = true
*.configurator.verbose = true

#------------------------------------#



#------------------------------------#
# Config CBR-UL
#
# Configuration with CBR UL traffic from the UEs to a remote server
# 
[Config CBR-UL]
extends=MultiCell
description = "CBR UL traffic from UEs to remote server"

# one UDP application for each user
*.ue[*].numApps = 1

# the amount of UDP applications on server should be equal to (numUEs)*(ue[*].numApps) 
*.server.numApps = ${numUEs}

#============= Application Setup =============
*.server.app[*].typename = "CbrReceiver"
*.server.app[*].localPort = 3000 + ancestorIndex(0)

*.ue[*].app[*].typename = "CbrSender"
*.ue[*].app[*].PacketSize = 100
*.ue[*].app[*].sampling_time = 0.02s
*.ue[*].app[*].destAddress = "server" 
*.ue[*].app[*].destPort = 3000 + ancestorIndex(1) 
*.ue[*].app[*].localPort = 3088+ancestorIndex(0)
*.ue[*].app[*].startTime = uniform(0s,0.02s)
*.ue[*].app[*].finishTime = uniform(19.9s,19.92s)
#------------------------------------#


